@<TRIPOS>MOLECULE
non
  196   196     1     0     0
SMALL
bcc


@<TRIPOS>ATOM
      1 C1         -7.2000    1.7370   -3.1640 c3        1 non     -0.099100
      2 C2         -5.8780    2.4030   -2.6290 c3        1 non     -0.107400
      3 C3         -4.5410    1.4500   -2.5750 c3        1 non      0.040700
      4 C4         -3.2650    2.3370   -2.5610 c         1 non      0.649100
      5 O1         -2.6360    2.6110   -3.6430 o         1 non     -0.584100
      6 N1         -2.7080    2.9180   -1.4040 n         1 non     -0.465800
      7 C5         -1.5590    3.8220   -1.4790 c3        1 non      0.037000
      8 C6         -1.7950    5.1430   -2.1440 c         1 non      0.637100
      9 O2         -1.2330    5.2360   -3.2660 o         1 non     -0.571100
     10 N2         -2.5050    6.2510   -1.6450 n         1 non     -0.457800
     11 C7         -3.2320    6.2560   -0.3710 c3        1 non      0.047700
     12 C8         -4.7040    6.2480   -0.6370 c         1 non      0.655100
     13 O3         -5.2800    5.1360   -0.6170 o         1 non     -0.606100
     14 N3         -5.4020    7.3810   -0.9880 n         1 non     -0.544900
     15 C9         -6.7330    7.4610   -1.5570 c3        1 non      0.054700
     16 C10        -7.8450    7.1630   -0.5830 c         1 non      0.636100
     17 O4         -7.7410    6.0250   -0.0670 o         1 non     -0.593100
     18 N4         -8.9740    7.9390   -0.2270 n         1 non     -0.484800
     19 C11        -9.1520    9.3760   -0.4890 c3        1 non      0.067700
     20 C12        -9.3110   10.1250    0.8010 c         1 non      0.654100
     21 O5        -10.4590   10.3070    1.2700 o         1 non     -0.584100
     22 N5         -8.3310   10.6320    1.5950 n         1 non     -0.578900
     23 C13        -6.9130   10.5620    1.4290 c3        1 non      0.040700
     24 C14        -6.3730    9.4630    2.2630 c         1 non      0.652100
     25 O6         -5.7650    8.5210    1.7040 o         1 non     -0.644100
     26 N6         -6.4820    9.5060    3.6220 n         1 non     -0.521900
     27 C15        -5.7480    8.6820    4.5530 c3        1 non      0.046700
     28 C16        -6.1790    7.2270    4.5800 c         1 non      0.636100
     29 O7         -7.3170    7.0250    4.0880 o         1 non     -0.581100
     30 N7         -5.5370    6.1280    5.1810 n         1 non     -0.471800
     31 C17        -6.2720    4.9120    5.5890 c3        1 non      0.058700
     32 C18        -7.1060    4.2110    4.5460 c         1 non      0.652100
     33 O8         -8.3400    4.1460    4.7690 o         1 non     -0.557100
     34 N8         -6.5920    3.5790    3.4040 n         1 non     -0.456800
     35 C19        -7.3350    2.4890    2.7220 c3        1 non      0.024700
     36 C20        -7.0510    1.0700    3.1820 c         1 non      0.661100
     37 O9         -8.0260    0.4650    3.6920 o         1 non     -0.563100
     38 N9         -5.8720    0.3270    3.0490 n         1 non     -0.497800
     39 C21        -5.8750   -1.1310    2.8270 c3        1 non      0.061700
     40 C22        -6.7130   -1.5170    1.6310 c         1 non      0.661100
     41 O10        -7.9490   -1.5200    1.8470 o         1 non     -0.571100
     42 N10        -6.2770   -1.8390    0.3280 n         1 non     -0.478800
     43 C23        -4.8960   -1.6700   -0.1550 c3        1 non      0.050700
     44 C24        -4.8230   -0.9420   -1.4610 c         1 non      0.648100
     45 O11        -4.8820   -1.5550   -2.5520 o         1 non     -0.590100
     46 N11        -4.6840    0.4550   -1.4730 n         1 non     -0.554900
     47 C25        -4.1170   -3.0360   -0.1650 c3        1 non      0.126100
     48 C26        -2.5940   -2.9790   -0.5550 c3        1 non     -0.101700
     49 C27        -2.0530   -4.4070   -0.8750 c3        1 non     -0.093100
     50 C28        -1.7040   -2.2650    0.5190 c3        1 non     -0.045200
     51 C29        -0.3300   -2.0390    0.0950 c2        1 non     -0.168200
     52 C30         0.0120   -1.1440   -0.8480 c2        1 non     -0.178200
     53 C31         1.3820   -0.9470   -1.2700 c3        1 non     -0.062900
     54 O12        -4.2740   -3.6680    1.1060 oh        1 non     -0.604800
     55 C32        -7.2480   -2.3660   -0.6210 c3        1 non      0.068300
     56 C33        -6.0580   -1.9380    4.1880 c3        1 non     -0.057700
     57 C34        -7.3280   -2.8290    4.3090 c3        1 non     -0.095100
     58 C35        -4.8080   -2.8030    4.5500 c3        1 non     -0.095100
     59 C36        -4.5930    0.9720    3.2070 c3        1 non      0.087300
     60 C37        -7.3950    2.5800    1.1500 c3        1 non     -0.093400
     61 C38        -8.7810    2.3970    0.4300 c3        1 non     -0.062700
     62 C39        -9.8720    3.4010    0.8960 c3        1 non     -0.104100
     63 C40        -9.3290    0.9500    0.4600 c3        1 non     -0.104100
     64 C41        -5.3490    4.1010    2.8700 c3        1 non      0.067300
     65 C42        -7.0100    5.1860    6.9540 c3        1 non     -0.099400
     66 C43        -6.1130    5.2210    8.2410 c3        1 non     -0.066700
     67 C44        -6.8130    5.9870    9.3980 c3        1 non     -0.092100
     68 C45        -5.6920    3.7950    8.7110 c3        1 non     -0.092100
     69 C46        -4.1290    6.1880    5.5160 c3        1 non      0.077300
     70 C47        -4.2470    9.0690    4.3690 c3        1 non     -0.107100
     71 C48        -6.2930   11.9380    1.7960 c3        1 non     -0.111100
     72 C49       -10.3150    9.7370   -1.4850 c3        1 non     -0.111400
     73 C50       -10.2200    9.0700   -2.9000 c3        1 non     -0.067700
     74 C51       -11.2700    7.9390   -3.0940 c3        1 non     -0.092600
     75 C52       -10.3290   10.0960   -4.0620 c3        1 non     -0.092600
     76 C53       -10.0400    7.2530    0.4970 c3        1 non      0.061300
     77 C54        -6.7630    6.6580   -2.9310 c3        1 non     -0.074700
     78 C55        -7.9950    5.7400   -3.1810 c3        1 non     -0.095100
     79 C56        -6.5030    7.5800   -4.1580 c3        1 non     -0.095100
     80 C57        -2.8080    7.3630    0.6550 c3        1 non     -0.117400
     81 C58        -1.3070    7.3560    1.1060 c3        1 non     -0.069700
     82 C59        -0.9740    6.1770    2.0680 c3        1 non     -0.090600
     83 C60        -0.9190    8.7010    1.7860 c3        1 non     -0.090600
     84 C61        -2.5030    7.4610   -2.4530 c3        1 non      0.063300
     85 C62        -3.1690    2.5440   -0.0880 c3        1 non      0.087300
     86 H1         -7.0730    1.4300   -4.2030 hc        1 non      0.040700
     87 H2         -7.4460    0.8600   -2.5650 hc        1 non      0.040700
     88 H3         -8.0330    2.4420   -3.1120 hc        1 non      0.040700
     89 H4         -6.1720    2.8370   -1.6410 hc        1 non      0.071200
     90 H5         -5.7660    3.3080   -3.2810 hc        1 non      0.071200
     91 H6         -4.5210    0.8970   -3.5180 h1        1 non      0.117700
     92 H7         -0.7660    3.2740   -2.0040 h1        1 non      0.079200
     93 H8         -1.1160    4.0380   -0.5060 h1        1 non      0.079200
     94 H9         -3.0260    5.3330    0.1610 h1        1 non      0.076700
     95 H10        -4.9280    8.2230   -0.9070 hn        1 non      0.329500
     96 H11        -6.8150    8.5110   -1.8130 h1        1 non      0.065700
     97 H12        -8.2760    9.8020   -0.9660 h1        1 non      0.060700
     98 H13        -8.6360   11.1010    2.3890 hn        1 non      0.322500
     99 H14        -6.6360   10.3820    0.3900 h1        1 non      0.078700
    100 H15        -7.0450   10.2030    3.9950 hn        1 non      0.328500
    101 H16        -6.0250    9.0690    5.5390 h1        1 non      0.062700
    102 H17        -5.5710    4.1100    5.8210 h1        1 non      0.072700
    103 H18        -8.3770    2.6490    2.9910 h1        1 non      0.126700
    104 H19        -4.8760   -1.4140    2.5140 h1        1 non      0.073700
    105 H20        -4.3570   -1.0090    0.5170 h1        1 non      0.076700
    106 H21        -4.6960    0.8230   -0.5700 hn        1 non      0.315500
    107 H22        -4.6150   -3.6870   -0.8880 h1        1 non      0.067700
    108 H23        -2.5170   -2.4140   -1.4880 hc        1 non      0.076700
    109 H24        -2.6640   -4.8860   -1.6430 hc        1 non      0.040033
    110 H25        -2.0620   -5.0350    0.0180 hc        1 non      0.040033
    111 H26        -1.0300   -4.3590   -1.2530 hc        1 non      0.040033
    112 H27        -2.1280   -1.2960    0.7890 hc        1 non      0.048200
    113 H28        -1.6980   -2.8700    1.4300 hc        1 non      0.048200
    114 H29         0.3850   -2.5880    0.5190 ha        1 non      0.128000
    115 H30        -0.6960   -0.5920   -1.2780 ha        1 non      0.113000
    116 H31         1.4340   -0.1890   -2.0550 hc        1 non      0.040700
    117 H32         1.7930   -1.8800   -1.6630 hc        1 non      0.040700
    118 H33         1.9900   -0.6150   -0.4260 hc        1 non      0.040700
    119 H34        -3.9020   -4.5680    1.0000 ho        1 non      0.410000
    120 H35        -6.8170   -3.1330   -1.2630 h1        1 non      0.051367
    121 H36        -7.6030   -1.5530   -1.2550 h1        1 non      0.051367
    122 H37        -8.1150   -2.8330   -0.1480 h1        1 non      0.051367
    123 H38        -6.1360   -1.2070    4.9990 hc        1 non      0.064700
    124 H39        -7.3560   -3.3360    5.2760 hc        1 non      0.042033
    125 H40        -8.2330   -2.2250    4.2390 hc        1 non      0.042033
    126 H41        -7.3390   -3.5890    3.5250 hc        1 non      0.042033
    127 H42        -4.9180   -3.2550    5.5380 hc        1 non      0.042033
    128 H43        -3.9060   -2.1860    4.5650 hc        1 non      0.042033
    129 H44        -4.6710   -3.6010    3.8180 hc        1 non      0.042033
    130 H45        -4.2770    1.4080    2.2640 h1        1 non      0.034700
    131 H46        -4.6360    1.7240    3.9940 h1        1 non      0.034700
    132 H47        -3.8120    0.2800    3.5260 h1        1 non      0.034700
    133 H48        -7.0530    3.5710    0.8520 hc        1 non      0.060700
    134 H49        -6.6840    1.8740    0.7130 hc        1 non      0.060700
    135 H50        -8.6010    2.6250   -0.6250 hc        1 non      0.037700
    136 H51       -10.6410    3.5070    0.1280 hc        1 non      0.042367
    137 H52        -9.4320    4.3780    1.0770 hc        1 non      0.042367
    138 H53       -10.3540    3.0680    1.8160 hc        1 non      0.042367
    139 H54       -10.2490    0.8710   -0.1230 hc        1 non      0.042367
    140 H55        -8.6010    0.2720    0.0220 hc        1 non      0.042367
    141 H56        -9.5450    0.6400    1.4810 hc        1 non      0.042367
    142 H57        -4.5420    4.0700    3.6010 h1        1 non      0.042367
    143 H58        -5.0060    3.5620    1.9980 h1        1 non      0.042367
    144 H59        -5.4980    5.1340    2.5540 h1        1 non      0.042367
    145 H60        -7.5540    6.1280    6.8550 hc        1 non      0.081700
    146 H61        -7.7640    4.4170    7.1360 hc        1 non      0.081700
    147 H62        -5.1990    5.7770    8.0270 hc        1 non      0.035700
    148 H63        -7.0260    7.0160    9.0970 hc        1 non      0.035367
    149 H64        -6.1690    6.0220   10.2800 hc        1 non      0.035367
    150 H65        -7.7510    5.5000    9.6740 hc        1 non      0.035367
    151 H66        -5.1570    3.2620    7.9230 hc        1 non      0.035367
    152 H67        -5.0280    3.8570    9.5750 hc        1 non      0.035367
    153 H68        -6.5680    3.2060    8.9920 hc        1 non      0.035367
    154 H69        -3.7230    5.2500    5.9020 h1        1 non      0.042700
    155 H70        -3.5370    6.4260    4.6340 h1        1 non      0.042700
    156 H71        -3.9660    6.9370    6.2880 h1        1 non      0.042700
    157 H72        -3.6770    8.9230    5.2840 hc        1 non      0.061033
    158 H73        -3.8030    8.4890    3.5660 hc        1 non      0.061033
    159 H74        -4.1410   10.1280    4.1130 hc        1 non      0.061033
    160 H75        -5.2100   11.9230    1.6550 hc        1 non      0.057367
    161 H76        -6.7040   12.7110    1.1420 hc        1 non      0.057367
    162 H77        -6.5040   12.2160    2.8330 hc        1 non      0.057367
    163 H78       -11.2820    9.4980   -1.0360 hc        1 non      0.075700
    164 H79       -10.3160   10.8260   -1.5970 hc        1 non      0.075700
    165 H80        -9.2340    8.6210   -2.9940 hc        1 non      0.037700
    166 H81       -11.1110    7.4340   -4.0500 hc        1 non      0.037533
    167 H82       -11.1830    7.1950   -2.3020 hc        1 non      0.037533
    168 H83       -12.2830    8.3490   -3.0760 hc        1 non      0.037533
    169 H84       -10.2060    9.5930   -5.0250 hc        1 non      0.037533
    170 H85        -9.5480   10.8560   -3.9740 hc        1 non      0.037533
    171 H86       -11.3050   10.5870   -4.0470 hc        1 non      0.037533
    172 H87       -10.3480    6.3540   -0.0420 h1        1 non      0.063367
    173 H88        -9.6890    6.9730    1.4930 h1        1 non      0.063367
    174 H89       -10.9470    7.8430    0.6260 h1        1 non      0.063367
    175 H90        -5.9240    5.9590   -2.9530 hc        1 non      0.097700
    176 H91        -7.9220    5.2550   -4.1580 hc        1 non      0.040533
    177 H92        -8.0440    4.9530   -2.4270 hc        1 non      0.040533
    178 H93        -8.9210    6.3070   -3.1450 hc        1 non      0.040533
    179 H94        -6.3930    6.9860   -5.0670 hc        1 non      0.040533
    180 H95        -5.5810    8.1450   -4.0120 hc        1 non      0.040533
    181 H96        -7.3240    8.2830   -4.3030 hc        1 non      0.040533
    182 H97        -3.0500    8.3430    0.2380 hc        1 non      0.066700
    183 H98        -3.4260    7.2450    1.5470 hc        1 non      0.066700
    184 H99        -0.6770    7.2580    0.2170 hc        1 non      0.058700
    185 H100        0.0650    6.2320    2.4000 hc        1 non      0.034533
    186 H101       -1.1070    5.2190    1.5720 hc        1 non      0.034533
    187 H102       -1.6230    6.2020    2.9460 hc        1 non      0.034533
    188 H103        0.1430    8.7090    2.0430 hc        1 non      0.034533
    189 H104       -1.1070    9.5410    1.1140 hc        1 non      0.034533
    190 H105       -1.4950    8.8530    2.7000 hc        1 non      0.034533
    191 H106       -3.1350    8.2550   -2.0620 h1        1 non      0.048033
    192 H107       -2.8580    7.2470   -3.4630 h1        1 non      0.048033
    193 H108       -1.4880    7.8600   -2.5130 h1        1 non      0.048033
    194 H109       -4.2450    2.6840   -0.0180 h1        1 non      0.041033
    195 H110       -2.9150    1.5010    0.1060 h1        1 non      0.041033
    196 H111       -2.7230    3.1150    0.7260 h1        1 non      0.041033
@<TRIPOS>BOND
     1    1    2 1   
     2    1   86 1   
     3    1   87 1   
     4    1   88 1   
     5    2    3 1   
     6    2   89 1   
     7    2   90 1   
     8    3    4 1   
     9    3   46 1   
    10    3   91 1   
    11    4    5 2   
    12    4    6 1   
    13    6    7 1   
    14    6   85 1   
    15    7    8 1   
    16    7   92 1   
    17    7   93 1   
    18    8    9 2   
    19    8   10 1   
    20   10   11 1   
    21   10   84 1   
    22   11   12 1   
    23   11   80 1   
    24   11   94 1   
    25   12   13 2   
    26   12   14 1   
    27   14   15 1   
    28   14   95 1   
    29   15   16 1   
    30   15   77 1   
    31   15   96 1   
    32   16   17 2   
    33   16   18 1   
    34   18   19 1   
    35   18   76 1   
    36   19   20 1   
    37   19   72 1   
    38   19   97 1   
    39   20   21 2   
    40   20   22 1   
    41   22   23 1   
    42   22   98 1   
    43   23   24 1   
    44   23   71 1   
    45   23   99 1   
    46   24   25 2   
    47   24   26 1   
    48   26   27 1   
    49   26  100 1   
    50   27   28 1   
    51   27   70 1   
    52   27  101 1   
    53   28   29 2   
    54   28   30 1   
    55   30   31 1   
    56   30   69 1   
    57   31   32 1   
    58   31   65 1   
    59   31  102 1   
    60   32   33 2   
    61   32   34 1   
    62   34   35 1   
    63   34   64 1   
    64   35   36 1   
    65   35   60 1   
    66   35  103 1   
    67   36   37 2   
    68   36   38 1   
    69   38   39 1   
    70   38   59 1   
    71   39   40 1   
    72   39   56 1   
    73   39  104 1   
    74   40   41 2   
    75   40   42 1   
    76   42   43 1   
    77   42   55 1   
    78   43   44 1   
    79   43   47 1   
    80   43  105 1   
    81   44   45 2   
    82   44   46 1   
    83   46  106 1   
    84   47   48 1   
    85   47   54 1   
    86   47  107 1   
    87   48   49 1   
    88   48   50 1   
    89   48  108 1   
    90   49  109 1   
    91   49  110 1   
    92   49  111 1   
    93   50   51 1   
    94   50  112 1   
    95   50  113 1   
    96   51   52 2   
    97   51  114 1   
    98   52   53 1   
    99   52  115 1   
   100   53  116 1   
   101   53  117 1   
   102   53  118 1   
   103   54  119 1   
   104   55  120 1   
   105   55  121 1   
   106   55  122 1   
   107   56   57 1   
   108   56   58 1   
   109   56  123 1   
   110   57  124 1   
   111   57  125 1   
   112   57  126 1   
   113   58  127 1   
   114   58  128 1   
   115   58  129 1   
   116   59  130 1   
   117   59  131 1   
   118   59  132 1   
   119   60   61 1   
   120   60  133 1   
   121   60  134 1   
   122   61   62 1   
   123   61   63 1   
   124   61  135 1   
   125   62  136 1   
   126   62  137 1   
   127   62  138 1   
   128   63  139 1   
   129   63  140 1   
   130   63  141 1   
   131   64  142 1   
   132   64  143 1   
   133   64  144 1   
   134   65   66 1   
   135   65  145 1   
   136   65  146 1   
   137   66   67 1   
   138   66   68 1   
   139   66  147 1   
   140   67  148 1   
   141   67  149 1   
   142   67  150 1   
   143   68  151 1   
   144   68  152 1   
   145   68  153 1   
   146   69  154 1   
   147   69  155 1   
   148   69  156 1   
   149   70  157 1   
   150   70  158 1   
   151   70  159 1   
   152   71  160 1   
   153   71  161 1   
   154   71  162 1   
   155   72   73 1   
   156   72  163 1   
   157   72  164 1   
   158   73   74 1   
   159   73   75 1   
   160   73  165 1   
   161   74  166 1   
   162   74  167 1   
   163   74  168 1   
   164   75  169 1   
   165   75  170 1   
   166   75  171 1   
   167   76  172 1   
   168   76  173 1   
   169   76  174 1   
   170   77   78 1   
   171   77   79 1   
   172   77  175 1   
   173   78  176 1   
   174   78  177 1   
   175   78  178 1   
   176   79  179 1   
   177   79  180 1   
   178   79  181 1   
   179   80   81 1   
   180   80  182 1   
   181   80  183 1   
   182   81   82 1   
   183   81   83 1   
   184   81  184 1   
   185   82  185 1   
   186   82  186 1   
   187   82  187 1   
   188   83  188 1   
   189   83  189 1   
   190   83  190 1   
   191   84  191 1   
   192   84  192 1   
   193   84  193 1   
   194   85  194 1   
   195   85  195 1   
   196   85  196 1   
@<TRIPOS>SUBSTRUCTURE
     1 non         1 TEMP              0 ****  ****    0 ROOT
